Version 4
SHEET 1 880 680
WIRE 0 96 -64 96
WIRE 0 128 0 96
WIRE 288 192 240 192
WIRE 176 208 128 208
WIRE 0 224 0 208
WIRE 128 224 128 208
WIRE 128 224 0 224
WIRE 0 288 0 224
WIRE 128 320 128 224
WIRE 160 320 128 320
WIRE 288 320 288 192
WIRE 288 320 240 320
FLAG 208 224 0
FLAG 0 368 0
FLAG -64 176 0
FLAG 160 16 0
FLAG 160 -64 vref
FLAG 176 176 vref
FLAG 336 16 0
FLAG 336 -64 vcc
FLAG 208 160 vcc
FLAG 288 192 vout
SYMBOL OpAmps\\UniversalOpAmp2 208 192 R0
SYMATTR InstName U1
SYMBOL voltage -64 80 R0
WINDOW 3 -318 155 Left 2
WINDOW 123 0 0 Left 0
WINDOW 39 0 0 Left 0
SYMATTR InstName V1
SYMATTR Value PULSE(0 17 1n 0.5 0.5 1n 1 5)
SYMBOL res -16 272 R0
SYMATTR InstName R1
SYMATTR Value 3.3k
SYMBOL res -16 112 R0
SYMATTR InstName R2
SYMATTR Value 10k
SYMBOL res 256 304 R90
WINDOW 0 0 56 VBottom 2
WINDOW 3 32 56 VTop 2
SYMATTR InstName R3
SYMATTR Value 120k
SYMBOL voltage 160 -80 R0
WINDOW 123 0 0 Left 0
WINDOW 39 0 0 Left 0
SYMATTR InstName V2
SYMATTR Value 4
SYMBOL voltage 336 -80 R0
WINDOW 123 0 0 Left 0
WINDOW 39 0 0 Left 0
SYMATTR InstName V3
SYMATTR Value 12
TEXT -384 392 Left 2 !.tran 5
